<?xml version="1.0" encoding="utf-8"?>
<FrameLayout xmlns:android="http://schemas.android.com/apk/res/android"
    android:layout_width="match_parent"
    android:layout_height="match_parent"
    android:background="@color/app_black">

    <net.ossrs.yasea.SrsCameraView
        android:id="@+id/glsurfaceview_camera"
        android:layout_width="match_parent"
        android:layout_height="match_parent" />

    <androidx.viewpager.widget.ViewPager
        android:id="@+id/view_pager"
        android:layout_width="match_parent"
        android:layout_height="match_parent" />

</FrameLayout>
